
No compatibility mode selected!


Circuit: * /home/shubhamgarg1299/esim-workspace/counter/counter.cir

Reducing trtol to 1 for xspice 'A' devices
Doing analysis at TEMP = 27.000000 and TNOM = 27.000000

Warning: v2: no DC value, transient time 0 value used
Warning: v1: no DC value, transient time 0 value used
=============shubham_counter4bit : New Iteration===========
Instance : 0

Inside foo before eval.....
clk=0
rst=0
out=0

Inside foo after eval.....
clk=0
rst=0
out=0
=============shubham_counter4bit : New Iteration===========
Instance : 0

Inside foo before eval.....
clk=0
rst=0
out=0

Inside foo after eval.....
clk=0
rst=0
out=0

Initial Transient Solution
--------------------------

Node                                   Voltage
----                                   -------
net-_r3-pad1_                                0
o3                                           0
net-_r1-pad1_                                0
clk                                          0
reset                                        0
o2                                           0
o1                                           0
o0                                           0
v2#branch                                    0
v1#branch                                    0
a2#branch_1_0                                0
a2#branch_1_1                                0
a2#branch_1_2                                0
a2#branch_1_3                                0

=============shubham_counter4bit : New Iteration===========
Instance : 0

Inside foo before eval.....
clk=0
rst=0
out=0

Inside foo after eval.....
clk=1
rst=1
out=0
=============shubham_counter4bit : New Iteration===========
Instance : 0

Inside foo before eval.....
clk=1
rst=1
out=0

Inside foo after eval.....
clk=1
rst=1
out=0
=============shubham_counter4bit : New Iteration===========
Instance : 0

Inside foo before eval.....
clk=1
rst=1
out=0

Inside foo after eval.....
clk=1
rst=1
out=0
=============shubham_counter4bit : New Iteration===========
Instance : 0

Inside foo before eval.....
clk=1
rst=1
out=0

Inside foo after eval.....
clk=0
rst=1
out=0
=============shubham_counter4bit : New Iteration===========
Instance : 0

Inside foo before eval.....
clk=0
rst=1
out=0

Inside foo after eval.....
clk=0
rst=0
out=0
=============shubham_counter4bit : New Iteration===========
Instance : 0

Inside foo before eval.....
clk=0
rst=0
out=0

Inside foo after eval.....
clk=1
rst=0
out=1
=============shubham_counter4bit : New Iteration===========
Instance : 0

Inside foo before eval.....
clk=1
rst=0
out=1

Inside foo after eval.....
clk=1
rst=0
out=1
=============shubham_counter4bit : New Iteration===========
Instance : 0

Inside foo before eval.....
clk=1
rst=0
out=1

Inside foo after eval.....
clk=1
rst=0
out=1
=============shubham_counter4bit : New Iteration===========
Instance : 0

Inside foo before eval.....
clk=1
rst=0
out=1

Inside foo after eval.....
clk=0
rst=0
out=1
=============shubham_counter4bit : New Iteration===========
Instance : 0

Inside foo before eval.....
clk=0
rst=0
out=1

Inside foo after eval.....
clk=1
rst=0
out=2
=============shubham_counter4bit : New Iteration===========
Instance : 0

Inside foo before eval.....
clk=1
rst=0
out=2

Inside foo after eval.....
clk=1
rst=0
out=2
=============shubham_counter4bit : New Iteration===========
Instance : 0

Inside foo before eval.....
clk=1
rst=0
out=2

Inside foo after eval.....
clk=1
rst=0
out=2
=============shubham_counter4bit : New Iteration===========
Instance : 0

Inside foo before eval.....
clk=1
rst=0
out=2

Inside foo after eval.....
clk=0
rst=0
out=2
=============shubham_counter4bit : New Iteration===========
Instance : 0

Inside foo before eval.....
clk=0
rst=0
out=2

Inside foo after eval.....
clk=1
rst=0
out=3
=============shubham_counter4bit : New Iteration===========
Instance : 0

Inside foo before eval.....
clk=1
rst=0
out=3

Inside foo after eval.....
clk=1
rst=0
out=3
=============shubham_counter4bit : New Iteration===========
Instance : 0

Inside foo before eval.....
clk=1
rst=0
out=3

Inside foo after eval.....
clk=1
rst=0
out=3
=============shubham_counter4bit : New Iteration===========
Instance : 0

Inside foo before eval.....
clk=1
rst=0
out=3

Inside foo after eval.....
clk=0
rst=0
out=3
=============shubham_counter4bit : New Iteration===========
Instance : 0

Inside foo before eval.....
clk=0
rst=0
out=3

Inside foo after eval.....
clk=1
rst=0
out=4
=============shubham_counter4bit : New Iteration===========
Instance : 0

Inside foo before eval.....
clk=1
rst=0
out=4

Inside foo after eval.....
clk=1
rst=0
out=4
=============shubham_counter4bit : New Iteration===========
Instance : 0

Inside foo before eval.....
clk=1
rst=0
out=4

Inside foo after eval.....
clk=1
rst=0
out=4
=============shubham_counter4bit : New Iteration===========
Instance : 0

Inside foo before eval.....
clk=1
rst=0
out=4

Inside foo after eval.....
clk=0
rst=0
out=4
=============shubham_counter4bit : New Iteration===========
Instance : 0

Inside foo before eval.....
clk=0
rst=0
out=4

Inside foo after eval.....
clk=1
rst=0
out=5
=============shubham_counter4bit : New Iteration===========
Instance : 0

Inside foo before eval.....
clk=1
rst=0
out=5

Inside foo after eval.....
clk=1
rst=0
out=5
=============shubham_counter4bit : New Iteration===========
Instance : 0

Inside foo before eval.....
clk=1
rst=0
out=5

Inside foo after eval.....
clk=1
rst=0
out=5
=============shubham_counter4bit : New Iteration===========
Instance : 0

Inside foo before eval.....
clk=1
rst=0
out=5

Inside foo after eval.....
clk=0
rst=0
out=5
=============shubham_counter4bit : New Iteration===========
Instance : 0

Inside foo before eval.....
clk=0
rst=0
out=5

Inside foo after eval.....
clk=1
rst=0
out=6
=============shubham_counter4bit : New Iteration===========
Instance : 0

Inside foo before eval.....
clk=1
rst=0
out=6

Inside foo after eval.....
clk=1
rst=0
out=6
=============shubham_counter4bit : New Iteration===========
Instance : 0

Inside foo before eval.....
clk=1
rst=0
out=6

Inside foo after eval.....
clk=1
rst=0
out=6
=============shubham_counter4bit : New Iteration===========
Instance : 0

Inside foo before eval.....
clk=1
rst=0
out=6

Inside foo after eval.....
clk=0
rst=0
out=6
=============shubham_counter4bit : New Iteration===========
Instance : 0

Inside foo before eval.....
clk=0
rst=0
out=6

Inside foo after eval.....
clk=1
rst=0
out=7
=============shubham_counter4bit : New Iteration===========
Instance : 0

Inside foo before eval.....
clk=1
rst=0
out=7

Inside foo after eval.....
clk=1
rst=0
out=7
=============shubham_counter4bit : New Iteration===========
Instance : 0

Inside foo before eval.....
clk=1
rst=0
out=7

Inside foo after eval.....
clk=1
rst=0
out=7
=============shubham_counter4bit : New Iteration===========
Instance : 0

Inside foo before eval.....
clk=1
rst=0
out=7

Inside foo after eval.....
clk=0
rst=0
out=7
=============shubham_counter4bit : New Iteration===========
Instance : 0

Inside foo before eval.....
clk=0
rst=0
out=7

Inside foo after eval.....
clk=1
rst=0
out=8
=============shubham_counter4bit : New Iteration===========
Instance : 0

Inside foo before eval.....
clk=1
rst=0
out=8

Inside foo after eval.....
clk=1
rst=0
out=8
=============shubham_counter4bit : New Iteration===========
Instance : 0

Inside foo before eval.....
clk=1
rst=0
out=8

Inside foo after eval.....
clk=1
rst=0
out=8
=============shubham_counter4bit : New Iteration===========
Instance : 0

Inside foo before eval.....
clk=1
rst=0
out=8

Inside foo after eval.....
clk=0
rst=0
out=8
=============shubham_counter4bit : New Iteration===========
Instance : 0

Inside foo before eval.....
clk=0
rst=0
out=8

Inside foo after eval.....
clk=1
rst=0
out=9
=============shubham_counter4bit : New Iteration===========
Instance : 0

Inside foo before eval.....
clk=1
rst=0
out=9

Inside foo after eval.....
clk=1
rst=0
out=9
=============shubham_counter4bit : New Iteration===========
Instance : 0

Inside foo before eval.....
clk=1
rst=0
out=9

Inside foo after eval.....
clk=1
rst=0
out=9
=============shubham_counter4bit : New Iteration===========
Instance : 0

Inside foo before eval.....
clk=1
rst=0
out=9

Inside foo after eval.....
clk=0
rst=0
out=9

No. of Data Rows : 787
ERROR: (internal)  This operation is not defined for display type PrinterOnly.
Can't open viewport for graphics.
ERROR: (internal)  This operation is not defined for display type PrinterOnly.
Can't open viewport for graphics.
ERROR: (internal)  This operation is not defined for display type PrinterOnly.
Can't open viewport for graphics.
ERROR: (internal)  This operation is not defined for display type PrinterOnly.
Can't open viewport for graphics.
ERROR: (internal)  This operation is not defined for display type PrinterOnly.
Can't open viewport for graphics.
ERROR: (internal)  This operation is not defined for display type PrinterOnly.
Can't open viewport for graphics.
binary raw file "/home/shubhamgarg1299/eSim-Workspace/counter/counter.raw"
Reducing trtol to 1 for xspice 'A' devices
Doing analysis at TEMP = 27.000000 and TNOM = 27.000000

Warning: v2: no DC value, transient time 0 value used
Warning: v1: no DC value, transient time 0 value used
No. of Data Columns : 15  
=============shubham_counter4bit : New Iteration===========
Instance : 1

Inside foo before eval.....
clk=0
rst=0
out=0

Inside foo after eval.....
clk=0
rst=0
out=0
=============shubham_counter4bit : New Iteration===========
Instance : 1

Inside foo before eval.....
clk=0
rst=0
out=0

Inside foo after eval.....
clk=0
rst=0
out=0

Initial Transient Solution
--------------------------

Node                                   Voltage
----                                   -------
net-_r3-pad1_                                0
o3                                           0
net-_r1-pad1_                                0
clk                                          0
reset                                        0
o2                                           0
o1                                           0
o0                                           0
v2#branch                                    0
v1#branch                                    0
a2#branch_1_0                                0
a2#branch_1_1                                0
a2#branch_1_2                                0
a2#branch_1_3                                0

=============shubham_counter4bit : New Iteration===========
Instance : 1

Inside foo before eval.....
clk=0
rst=0
out=0

Inside foo after eval.....
clk=1
rst=1
out=0
=============shubham_counter4bit : New Iteration===========
Instance : 1

Inside foo before eval.....
clk=1
rst=1
out=0

Inside foo after eval.....
clk=1
rst=1
out=0
=============shubham_counter4bit : New Iteration===========
Instance : 1

Inside foo before eval.....
clk=1
rst=1
out=0

Inside foo after eval.....
clk=1
rst=1
out=0
=============shubham_counter4bit : New Iteration===========
Instance : 1

Inside foo before eval.....
clk=1
rst=1
out=0

Inside foo after eval.....
clk=0
rst=1
out=0
=============shubham_counter4bit : New Iteration===========
Instance : 1

Inside foo before eval.....
clk=0
rst=1
out=0

Inside foo after eval.....
clk=0
rst=0
out=0
=============shubham_counter4bit : New Iteration===========
Instance : 1

Inside foo before eval.....
clk=0
rst=0
out=0

Inside foo after eval.....
clk=1
rst=0
out=1
=============shubham_counter4bit : New Iteration===========
Instance : 1

Inside foo before eval.....
clk=1
rst=0
out=1

Inside foo after eval.....
clk=1
rst=0
out=1
=============shubham_counter4bit : New Iteration===========
Instance : 1

Inside foo before eval.....
clk=1
rst=0
out=1

Inside foo after eval.....
clk=1
rst=0
out=1
=============shubham_counter4bit : New Iteration===========
Instance : 1

Inside foo before eval.....
clk=1
rst=0
out=1

Inside foo after eval.....
clk=0
rst=0
out=1
=============shubham_counter4bit : New Iteration===========
Instance : 1

Inside foo before eval.....
clk=0
rst=0
out=1

Inside foo after eval.....
clk=1
rst=0
out=2
=============shubham_counter4bit : New Iteration===========
Instance : 1

Inside foo before eval.....
clk=1
rst=0
out=2

Inside foo after eval.....
clk=1
rst=0
out=2
=============shubham_counter4bit : New Iteration===========
Instance : 1

Inside foo before eval.....
clk=1
rst=0
out=2

Inside foo after eval.....
clk=1
rst=0
out=2
=============shubham_counter4bit : New Iteration===========
Instance : 1

Inside foo before eval.....
clk=1
rst=0
out=2

Inside foo after eval.....
clk=0
rst=0
out=2
=============shubham_counter4bit : New Iteration===========
Instance : 1

Inside foo before eval.....
clk=0
rst=0
out=2

Inside foo after eval.....
clk=1
rst=0
out=3
=============shubham_counter4bit : New Iteration===========
Instance : 1

Inside foo before eval.....
clk=1
rst=0
out=3

Inside foo after eval.....
clk=1
rst=0
out=3
=============shubham_counter4bit : New Iteration===========
Instance : 1

Inside foo before eval.....
clk=1
rst=0
out=3

Inside foo after eval.....
clk=1
rst=0
out=3
=============shubham_counter4bit : New Iteration===========
Instance : 1

Inside foo before eval.....
clk=1
rst=0
out=3

Inside foo after eval.....
clk=0
rst=0
out=3
=============shubham_counter4bit : New Iteration===========
Instance : 1

Inside foo before eval.....
clk=0
rst=0
out=3

Inside foo after eval.....
clk=1
rst=0
out=4
=============shubham_counter4bit : New Iteration===========
Instance : 1

Inside foo before eval.....
clk=1
rst=0
out=4

Inside foo after eval.....
clk=1
rst=0
out=4
=============shubham_counter4bit : New Iteration===========
Instance : 1

Inside foo before eval.....
clk=1
rst=0
out=4

Inside foo after eval.....
clk=1
rst=0
out=4
=============shubham_counter4bit : New Iteration===========
Instance : 1

Inside foo before eval.....
clk=1
rst=0
out=4

Inside foo after eval.....
clk=0
rst=0
out=4
=============shubham_counter4bit : New Iteration===========
Instance : 1

Inside foo before eval.....
clk=0
rst=0
out=4

Inside foo after eval.....
clk=1
rst=0
out=5
=============shubham_counter4bit : New Iteration===========
Instance : 1

Inside foo before eval.....
clk=1
rst=0
out=5

Inside foo after eval.....
clk=1
rst=0
out=5
=============shubham_counter4bit : New Iteration===========
Instance : 1

Inside foo before eval.....
clk=1
rst=0
out=5

Inside foo after eval.....
clk=1
rst=0
out=5
=============shubham_counter4bit : New Iteration===========
Instance : 1

Inside foo before eval.....
clk=1
rst=0
out=5

Inside foo after eval.....
clk=0
rst=0
out=5
=============shubham_counter4bit : New Iteration===========
Instance : 1

Inside foo before eval.....
clk=0
rst=0
out=5

Inside foo after eval.....
clk=1
rst=0
out=6
=============shubham_counter4bit : New Iteration===========
Instance : 1

Inside foo before eval.....
clk=1
rst=0
out=6

Inside foo after eval.....
clk=1
rst=0
out=6
=============shubham_counter4bit : New Iteration===========
Instance : 1

Inside foo before eval.....
clk=1
rst=0
out=6

Inside foo after eval.....
clk=1
rst=0
out=6
=============shubham_counter4bit : New Iteration===========
Instance : 1

Inside foo before eval.....
clk=1
rst=0
out=6

Inside foo after eval.....
clk=0
rst=0
out=6
=============shubham_counter4bit : New Iteration===========
Instance : 1

Inside foo before eval.....
clk=0
rst=0
out=6

Inside foo after eval.....
clk=1
rst=0
out=7
=============shubham_counter4bit : New Iteration===========
Instance : 1

Inside foo before eval.....
clk=1
rst=0
out=7

Inside foo after eval.....
clk=1
rst=0
out=7
=============shubham_counter4bit : New Iteration===========
Instance : 1

Inside foo before eval.....
clk=1
rst=0
out=7

Inside foo after eval.....
clk=1
rst=0
out=7
=============shubham_counter4bit : New Iteration===========
Instance : 1

Inside foo before eval.....
clk=1
rst=0
out=7

Inside foo after eval.....
clk=0
rst=0
out=7
=============shubham_counter4bit : New Iteration===========
Instance : 1

Inside foo before eval.....
clk=0
rst=0
out=7

Inside foo after eval.....
clk=1
rst=0
out=8
=============shubham_counter4bit : New Iteration===========
Instance : 1

Inside foo before eval.....
clk=1
rst=0
out=8

Inside foo after eval.....
clk=1
rst=0
out=8
=============shubham_counter4bit : New Iteration===========
Instance : 1

Inside foo before eval.....
clk=1
rst=0
out=8

Inside foo after eval.....
clk=1
rst=0
out=8
=============shubham_counter4bit : New Iteration===========
Instance : 1

Inside foo before eval.....
clk=1
rst=0
out=8

Inside foo after eval.....
clk=0
rst=0
out=8
=============shubham_counter4bit : New Iteration===========
Instance : 1

Inside foo before eval.....
clk=0
rst=0
out=8

Inside foo after eval.....
clk=1
rst=0
out=9
=============shubham_counter4bit : New Iteration===========
Instance : 1

Inside foo before eval.....
clk=1
rst=0
out=9

Inside foo after eval.....
clk=1
rst=0
out=9
=============shubham_counter4bit : New Iteration===========
Instance : 1

Inside foo before eval.....
clk=1
rst=0
out=9

Inside foo after eval.....
clk=1
rst=0
out=9
=============shubham_counter4bit : New Iteration===========
Instance : 1

Inside foo before eval.....
clk=1
rst=0
out=9

Inside foo after eval.....
clk=0
rst=0
out=9

No. of Data Rows : 787

Total analysis time (seconds) = 0.031721

Total CPU time (seconds) = 0.084 

Total DRAM available = 257855.305 MB.
DRAM currently available = 31084.438 MB.
Maximum ngspice program size =   77.098 MB.
Current ngspice program size =   11.887 MB.

Shared ngspice pages =    9.883 MB.
Text (code) pages =    6.285 MB.
Stack = 0 bytes.
Library pages =    4.898 MB.

